
Database,1;
Internals
A,1;
Dive,1;
Systems,1;
Internals
by,1;
All,1;
United,1;
States,1;
promotional,1;
titles,1;
For,1;
information,,1;
department:,1;
800-998-9938,1;
Editor:,1;
Editor:,1;
Cronin
Production,1;
Editor:,1;
Cofer
Proofreader:,1;
Judith,1;
Montgomery
Illustrator:,1;
Demarest
First,1;
History,1;
release,1;
a,1;
registered,1;
related,1;
Inc.
The,1;
do,1;
not,1;
have,1;
faith,1;
efforts,1;
ensure,1;
disclaim,1;
responsibility
for,1;
including,1;
instructions,1;
at,1;
any,1;
ensure,1;
rights.
978-1-492-04034-7
[MBP]To,1;
Pieter,1;
book:
an,1;
systems,1;
programmer,,1;
Layout
Column-Oriented,1;
Files
Data,1;
Trees
Tree,1;
Balancing
Trees,1;
Disk,1;
Drives
Solid,1;
State,1;
Drives
26
27
28
29
30
30
vOn-Disk,1;
Hierarchy
Separator,1;
45
Motivation
Binary,1;
Variable-Size,1;
Booleans,,1;
Slotted,1;
Variable-Size,1;
Implementing,1;
Numbers
Sibling,1;
Pages
Binary,1;
Updates,1;
Anomalies
Isolation,1;
Control
Lock-Based,1;
Variants.,1;
LMDB
Abstracting,1;
B-Trees
WiredTiger
Lazy-Adaptive,1;
Cascading
Logarithmic,1;
Operations
Consolidation,1;
129
LSM,1;
Structure
Updates,1;
Conjecture
Implementation,1;
String,1;
Filters
Skiplist
Disk,1;
Access
Compression
Unordered,1;
Layer
Filesystem,1;
SSDs
Summary
130
132
136
137
137
140
141
143
144
145
145
146
148
150
151
152
153
154
155
157
157
159
160
161
162
Part,1;
Systems
8.,1;
State,1;
a,1;
Partial,1;
Failures
Distributed,1;
Systems,1;
Impossibility
System,1;
Faults
Omission,1;
Faults
Handling,1;
Pings
Timeout-Free,1;
Detector
Gossip,1;
Detection
Reversing,1;
Detection,1;
Algorithm
Ring,1;
Algorithm
Summary
207
208
209
210
211
212
11.,1;
Availability
Infamous,1;
CAP,1;
Contents
|
ixStrict,1;
Consistency
Causal,1;
Models
Eventual,1;
Consistency
Witness,1;
Version,1;
Vectors
Gossip,1;
Views
Summary
245
246
246
247
248
250
251
251
253
254
255
13.,1;
Appear,1;
2PC
Coordinator,1;
Commit
Coordinator,1;
Spanner
Database,1;
Broadcast
x
|
Table,1;
Contents
280
281Virtual,1;
Broadcast,1;
Paxos
Failure,1;
Paxos
Flexible,1;
Paxos
Generalized,1;
Algorithm
Recovery,1;
Checkpointing
Summary
282
283
285
286
287
288
291
292
293
296
297
300
302
304
305
306
309
309
Part,1;
337
Table,1;
systems,1;
businesses,1;
software,1;
a,1;
user,1;
systems,1;
take,1;
if,1;
a,1;
would,1;
have,1;
a,1;
would,1;
realm,1;
would,1;
small.,1;
course,,1;
does,1;
not,1;
data‐
bases,1;
completely,1;
have,1;
focused,1;
increasing,1;
multiple,1;
a,1;
logical,1;
unit:,1;
Gamma,1;
Machine,1;
properties,1;
explained,1;
popularity,1;
often,1;
spin,1;
a,1;
up),1;
moving,1;
larger,,1;
powerful,1;
a,1;
consistent,1;
and
terms,1;
big,1;
years,
the,1;
internet,1;
tools,1;
it’s,1;
lost,1;
details,,1;
team,1;
at,1;
Amazon,1;
impact,1;
a,1;
period,1;
Apache,1;
created,1;
at,1;
created,1;
at,1;
we,1;
have,1;
scalable,1;
at,1;
conferences,,1;
often,1;
same,1;
start.”,1;
systems,1;
do,1;
not,1;
methods,,1;
a,1;
high,1;
level.,1;
concepts,,1;
usually,1;
who,1;
reads,1;
it’s,1;
not,1;
often,1;
little,1;
papers,,1;
book,1;
summaries,1;
database
systems,1;
a,1;
wants,1;
a,1;
book,1;
people
who,1;
software,1;
uses,1;
systems:,1;
software,1;
reliability,1;
managers.
If,1;
depends,1;
any,1;
a,1;
a,1;
a,1;
platform,,1;
a,1;
have,1;
happenings,1;
tools,1;
identify,,1;
a,1;
understanding,1;
how,1;
data‐
base,1;
systems,1;
knowledge,
you’ll,1;
a,1;
hypothesis,,1;
project,1;
book,1;
curious,1;
who,1;
learning,1;
things,1;
who,1;
free,1;
hacking,1;
cre‐
ating,1;
text,1;
learning,1;
absorbing,1;
reader,1;
have,1;
systems,1;
systems,1;
a,1;
prior,1;
different
data,1;
often,1;
systems,1;
implement:,1;
uses,1;
(see
Chapter,1;
have,1;
if,1;
you’re,1;
have,1;
a,1;
lot,1;
B-Trees,1;
using,1;
5).
We,1;
concepts,,1;
we,1;
have,1;
a,1;
we,1;
a,1;
conversation.,1;
form
of,1;
common,1;
other,,1;
higher-level,1;
learning,1;
fundamental,1;
concepts,,1;
course,,1;
always,1;
often,1;
created,1;
finding,1;
a,1;
a,1;
classical
one.,1;
history,1;
things,1;
inspiring.,1;
industry,1;
problem,1;
other,,1;
same,1;
learning,1;
almost,1;
how,1;
multiple,1;
together,1;
mind,1;
a,1;
full,1;
picture,1;
always,1;
able
to,1;
a,1;
book,1;
systems,1;
sys‐
tems,,1;
a,1;
focus,1;
a,1;
responsible,1;
concepts,,1;
optimization,,1;
a,1;
data‐
base,1;
Some,1;
usually,1;
book,1;
pointers
to,1;
chapter,1;
you’re,1;
likely,1;
might
have.
Query,1;
discussed,,1;
common,1;
systems,1;
blog,1;
code,,1;
not,1;
a,1;
concept,1;
“Do,1;
industry,1;
“yes,”,1;
concept,1;
things,1;
Book
There,1;
extensible,1;
same,1;
we,1;
vendors
talking,1;
distinctions,1;
systems,1;
how,1;
how,1;
distribute,1;
not,1;
book,1;
responsible,1;
II).
Part,1;
discusses,1;
distinctive,1;
factors.
First,,1;
we,1;
a,1;
systems,1;
how,1;
effi‐
ciently,1;
maintaining,1;
including,1;
serialization,,1;
Later,,1;
we,1;
multiple,1;
concept,1;
B-
Trees.
Last,,1;
we,1;
commonly,1;
them.
Part,1;
how,1;
multiple,1;
a,1;
cluster.,1;
understanding,1;
how,1;
systems,1;
complications,1;
we,1;
face,1;
a,1;
we,1;
we,1;
detection,,1;
and
reporting,1;
book,1;
understanding,1;
concept,1;
leadership,,1;
we,1;
things,1;
systems,1;
we,1;
replicas,,1;
consistency.,1;
sometimes,1;
we,1;
we,1;
log‐
ical,1;
finish,1;
book,1;
references,1;
text,,1;
[DECANDIA07].,1;
related,1;
a,1;
section,1;
related,1;
content,1;
book:
Italic
Indicates,1;
extensions.
Constant,1;
a,1;
suggestion.
This,1;
a,1;
a,1;
book,1;
if,1;
do,1;
you’re,1;
a,1;
of
the,1;
For,1;
a,1;
uses,1;
does,1;
not,1;
Selling,1;
a,1;
CD-ROM,1;
examples
from,1;
does,1;
a,1;
does,1;
not,1;
a,1;
book,1;
appreciate,,1;
do,1;
not,1;
require,,1;
usually,1;
For,1;
“Database,1;
falls,1;
free,1;
at,1;
Learning
For,1;
almost,1;
business,1;
training,,1;
knowledge,,1;
conferences,,1;
learning,1;
learning,1;
training,1;
learning,1;
interactive,1;
a,1;
collection,1;
For,1;
information,,1;
comments,1;
concerning,1;
book,1;
Inc.
1005,1;
United,1;
States,1;
Canada)
707-829-0515,1;
local)
707-829-0104,1;
have,1;
a,1;
we,1;
list,1;
any,1;
at,1;
please,1;
to
bookquestions@oreilly.com.
For,1;
conferences,,1;
at,1;
http://www.oreilly.com.
Find,1;
http://www.youtube.com/oreillymedia
Acknowledgments
This,1;
book,1;
have,1;
who,1;
have,1;
a,1;
ideas,,1;
references,1;
thank,1;
who,1;
reviewd,1;
making,1;
book,1;
Alimov,,1;
Alvaro,,1;
Carlos,1;
Blake,1;
Eggleston,
Marcus,1;
Francisco,1;
Joshi,,1;
Maxi‐
milian,1;
Nate,1;
Meiklejohn,,1;
Maxim,1;
Edward,1;
Denis,1;
Shatrov,,1;
Massimiliano,1;
Tomassi,,1;
course,,1;
book,1;
have,1;
family:
my,1;
who,1;
have,1;
supported,1;
me,1;
Engines
The,1;
any,1;
reliably,1;
storing,1;
and
making,1;
a,1;
finding,1;
a,1;
a,1;
create,1;
a,1;
we,1;
we,1;
infrastructure.
Since,1;
we,1;
compact,1;
systems,1;
consist,1;
multiple,1;
a,1;
transport,1;
a,1;
out,1;
operations,,1;
a,1;
a,1;
software,1;
a,1;
responsible,1;
storing,,1;
memory
and,1;
capture,1;
a,1;
While,1;
respond,1;
look,1;
a,1;
API,,1;
One,1;
look,1;
at,1;
systems,1;
built,1;
a
schema,,1;
a,1;
sequences,1;
defined,1;
For,1;
a,1;
the
tables,,1;
string),1;
perspective
both,1;
HaloDB,,1;
systems,1;
Using
pluggable,1;
using,1;
subsystems.
At,1;
same,1;
separation,1;
For,1;
a,1;
including,1;
MongoDB,1;
In-Memory,,1;
have,1;
a,1;
chance
that,1;
a,1;
not,1;
a,1;
out,1;
migrate,1;
a,1;
cases,,1;
substantial,1;
reduce,1;
before,1;
a,1;
specific,1;
to
build,1;
(e.g.,,1;
how,1;
shared,,1;
rank,1;
arbi‐
trary,1;
popularity,1;
DB-Engines,1;
Go,,1;
a,1;
a,1;
how,1;
a,1;
defining,1;
completely,1;
you’re,1;
a,1;
data‐
base,1;
would,1;
a,1;
have,1;
best,1;
do,1;
metrics,1;
and
compare,1;
results.,1;
Some,1;
best,1;
have,1;
simulates,1;
closely,1;
not,1;
how,1;
how,1;
debug,,1;
out,1;
how,1;
helpful,1;
always,1;
a,1;
combination,1;
often,1;
out,1;
not,1;
it’s,1;
usually
much,1;
a,1;
it.
To,1;
it’s,1;
helpful,1;
variables,,1;
clients
•,1;
any,1;
variables
Knowing,1;
store?
•,1;
a,1;
do,1;
we,1;
given,1;
What,1;
a,1;
have,1;
stress,1;
tools,1;
stress,1;
a,1;
prevents
you,1;
using,1;
scratch.
If,1;
show,1;
positive,1;
helpful,1;
familiarize,1;
yourself,1;
at,1;
code,,1;
often,1;
of
the,1;
how,1;
a,1;
codebase,1;
log,1;
records,1;
produces,,1;
uses,1;
if,1;
we,1;
could,1;
have,1;
take,1;
a,1;
a,1;
a,1;
problem,1;
it’s,1;
for
it.,1;
reduce,1;
business,1;
a,1;
tools,1;
Benchmark,1;
a,1;
stores.,1;
Just,1;
any‐
thing,1;
it’s,1;
a,1;
decision,,1;
Performance,1;
Council,1;
a,1;
that
database,1;
processing,1;
benchmark,,1;
a,1;
common,1;
executed
concurrent,1;
transactions.,1;
indicator,1;
number
of,1;
Executed,1;
transac‐
tions,1;
properties,1;
does,1;
not,1;
any,1;
business,1;
define,1;
a,1;
provider,1;
provided
services.,1;
Among,1;
the
number,1;
requirements,,1;
have,1;
before,1;
using,1;
you’ll,1;
a,1;
a,1;
decision,,1;
it’s,1;
best,1;
have,1;
strategy.,1;
usually,1;
and
security,1;
bugs,,1;
testing,1;
before,1;
out,1;
handling,1;
upgrades,1;
give,1;
Past,1;
upgrades,1;
do,1;
not,1;
complicated,1;
upgrades,1;
won’t,1;
we,1;
how,1;
we,1;
have,1;
a,1;
complicated,1;
layout,1;
pointers,
decide,1;
how,1;
going,1;
how,1;
figure,1;
out,1;
how,1;
a,1;
and,,1;
we,1;
any,1;
any,1;
things,1;
upon,,1;
decisions,1;
For,1;
if,1;
we,1;
records,1;
inserted,1;
we,1;
quicker,,1;
if,1;
we,1;
lexicographical
order,,1;
we,1;
have,1;
re-sort,1;
before,1;
at,1;
we,1;
benefits,1;
would,1;
But,1;
does,1;
not,1;
exist,,1;
we,1;
using,1;
All,1;
face,1;
same,1;
a,1;
a,1;
a,1;
specific,1;
population,1;
cases,,1;
same,1;
radically,1;
lifestyles.,1;
population,1;
likely,1;
traffic,1;
a,1;
likely,1;
covering,1;
decisions,1;
made,1;
stored,1;
references,1;
chapter,1;
book,1;
give,1;
a,1;
under‐
standing,1;
there.CHAPTER,1;
systems,1;
temporary,1;
hot,1;
a,1;
differ‐
ences,1;
distinctions,,1;
we,1;
a,1;
sometimes,1;
a,1;
For,1;
distinctions,1;
stores,1;
little,1;
do,1;
other,,1;
how,1;
nonclustered,1;
chapter,1;
aims,1;
we,1;
distinctions,1;
systems,1;
a,1;
DBMS”,1;
10),
and,1;
layout,1;
DBMS”,1;
do,1;
not,1;
a,1;
full,1;
For,1;
group
DBMSs,1;
processing,1;
a,1;
transactions.,1;
Queries
are,1;
often,1;
processing,1;
(OLAP),1;
often,1;
capable,1;
handling,1;
complex,,1;
processing,1;
(HTAP)
These,1;
properties,1;
not,1;
defined,1;
reader,1;
have,1;
a,1;
understanding,1;
Because,1;
we,1;
applicable,1;
stores,1;
book,1;
we,1;
we,1;
how,1;
influences,1;
common,1;
Every,1;
data‐
base,1;
built,1;
somewhat,1;
if,1;
(e.g.,,1;
project,1;
handling,1;
cases,,1;
define,1;
common,1;
systems,1;
a,1;
take,1;
role,1;
take,1;
role,1;
through,1;
transport,1;
Requests,1;
often,1;
transport,1;
responsible,1;
communication,1;
OverviewFigure,1;
a,1;
system
Upon,1;
receipt,,1;
transport,1;
a,1;
Later,,1;
done,1;
fully,1;
interpreted.
The,1;
eliminates,1;
redundant,1;
approximate,1;
intersection,1;
resolution,,1;
usually,1;
a,1;
dependency,1;
tree,,1;
usually,1;
plan):,1;
have,1;
out,1;
same,1;
using,1;
best,1;
Architecture
|
9The,1;
handled,1;
of
the,1;
writing
and,1;
(coming,1;
executed,1;
the
storage,1;
engine.,1;
schedules,1;
cannot,1;
a,1;
locks,1;
do,1;
not,1;
disk.,1;
heap
files,1;
B-Trees,1;
B-Trees”,1;
pages,1;
Management”,1;
log,1;
case
of,1;
a,1;
responsible,1;
Control”,1;
logical,1;
executed,1;
efficiently,1;
systems,1;
disk.,1;
systems,1;
primarily,1;
memory
and,1;
disk,1;
DBMS,1;
disk,1;
a,1;
temporary,1;
systems,1;
disk,1;
a,1;
extent,,1;
almost,1;
RAM.
10
|
Chapter,1;
orders,1;
magnitude,1;
economically,1;
do,1;
prices,1;
prices,1;
still,1;
high,1;
systems,1;
a,1;
using,1;
a,1;
do,1;
perfor‐
mance,,1;
costs,,1;
doing,1;
disk.,1;
Operating,1;
we,1;
have,1;
not,1;
crashes,,1;
failures,,1;
ensure,1;
uninterrupted,1;
supplies,1;
additional,1;
have,1;
likely,1;
availability,1;
popularity,1;
eliminates,1;
technology),1;
access.
Durability,1;
systems,1;
disk,1;
volatile,1;
Some,1;
any,1;
we,1;
do,1;
not,1;
have,1;
written,1;
log,1;
log,1;
a,1;
crash,,1;
stores,1;
a,1;
copy.,1;
copy,1;
a,1;
a,1;
at,1;
https://people.eecs.berkeley.edu/~rcs/research/interactive_latency.html.
Memory-,1;
often,1;
reduce,1;
I/O
operations.,1;
records,1;
usually,1;
log,1;
records,1;
is
processed,,1;
a,1;
a,1;
specific,1;
point,1;
log,1;
con‐
tents,1;
point,1;
log,1;
entries
without,1;
equivalent,1;
a,1;
Manage‐
ment”,1;
though,1;
pages,1;
seri‐
alization,1;
layout,1;
additional,1;
same,1;
stores
can,1;
achieve.
Disk-based,1;
disk,1;
random,1;
random,1;
disk,1;
often,1;
have,1;
a,1;
“Trees,1;
on
page,1;
implementations,1;
a,1;
would,1;
disk,1;
handling,1;
it’s,1;
often,1;
a,1;
referencing,1;
a,1;
cases,,1;
dataset,1;
going,1;
Some,1;
representations,,1;
stu‐
dent,1;
records,1;
schools,,1;
records,1;
not,1;
a,1;
limited.
Column-,1;
DBMS
Most,1;
systems,1;
a,1;
consisting,1;
intersection,1;
a,1;
a,1;
row:,1;
a,1;
same,1;
usually,1;
have,1;
same,1;
For,1;
define,1;
a,1;
user,1;
would,1;
same,1;
same,1;
A,1;
collection,1;
a,1;
row.
One,1;
how,1;
stored,1;
Tables,1;
partitioned,1;
either,1;
same,1;
same,1;
(a),1;
partitioned,1;
1-2.,1;
layout,1;
systems,1;
column-oriented,1;
stores,1;
C-Store,1;
systems,1;
records,1;
rows.,1;
same,1;
For,1;
a,1;
efficiently,1;
user,1;
Name,1;
Date,1;
10,1;
John,1;
Aug,1;
1981,1;
Sep,1;
30,1;
Jan,1;
(name,
birth,1;
a,1;
number),1;
All,1;
a,1;
user,1;
records,1;
user,1;
out,1;
we,1;
together,1;
same,1;
stores,1;
we,1;
have,1;
storing,1;
together,1;
spatial,1;
a,1;
a,1;
disk,1;
a,1;
disk,1;
a,1;
a,1;
locality,1;
stating,1;
if,1;
a,1;
location,1;
accessed,,1;
makes,1;
multiple,1;
user,1;
records,1;
fetching,1;
systems,1;
partition,1;
(i.e.,,1;
storing,1;
rows.,1;
same,1;
stored,1;
disk,1;
storing,1;
For,1;
if,1;
we,1;
price,1;
column,,1;
stores,1;
a,1;
finding,1;
logical,1;
records,1;
have,1;
multiple,1;
price,1;
have,1;
often,1;
a,1;
logical,1;
price,1;
a,1;
table:
|,1;
Symbol,1;
Date
|,1;
DOW
|,1;
Aug,1;
DOW
|,1;
09,1;
Aug,1;
3,1;
Aug,1;
09,1;
Aug,1;
2,232.32,1;
layout,1;
same,1;
stored,1;
closely,1;
1:DOW;,1;
Aug,1;
Aug,1;
Aug,1;
Aug,1;
3:2,414.45;,1;
tuples,,1;
filtering,,1;
we,1;
metadata,1;
do,1;
each
value,1;
have,1;
a,1;
introduces,1;
stored,1;
Some,1;
stores,1;
IDs),1;
likely,1;
a,1;
analytical
queries,1;
column-oriented,1;
Overviewsuch,1;
Apache,1;
Apache,1;
column-oriented,1;
Apache,1;
not,1;
distinctions,1;
stores,1;
in
the,1;
layout,1;
steps,1;
a,1;
stores,1;
multiple,1;
same,1;
CPUs,,1;
multiple,1;
a,1;
CPU,1;
have,1;
same,1;
together,1;
(e.g.,,1;
num‐
bers,,1;
a,1;
ratio.,1;
depending,1;
effective,1;
a,1;
a,1;
records,1;
(i.e.,,1;
consists,1;
point,1;
range
scans,,1;
likely,1;
results.,1;
a,1;
not,1;
mixed,1;
as
BigTable,1;
HBase,,1;
a,1;
families,1;
storing,1;
same,1;
family,,1;
stored,1;
layout,1;
best,1;
storing,1;
a,1;
a,1;
[CHANG06],1;
a,1;
Webtable.,1;
A,1;
Webtable
stores,1;
contents,,1;
them
at,1;
a,1;
specific,1;
reversed,1;
URL,,1;
content,1;
pages),1;
at,1;
a,1;
simplified,1;
be
represented,1;
a,1;
shows.
3,1;
Instruction,1;
a,1;
CPU,1;
same,1;
multiple,1;
DBMS
|
15Figure,1;
a,1;
stored,1;
a,1;
we,1;
can
locate,1;
related,1;
a,1;
specific,1;
reversed,1;
URL,1;
or
anchors,1;
together,1;
families—contents,1;
stored,1;
disk,1;
separately.,1;
a,1;
family,1;
a,1;
combination,1;
family,1;
a,1;
families,1;
multiple,1;
layout,1;
higher-level,1;
pages,,1;
case),1;
content,1;
the
other,1;
conceptual,1;
stores,
their,1;
layout,1;
somewhat,1;
A,1;
schematic,1;
data
layout,1;
families,1;
families,1;
stored,1;
family,,1;
same,1;
OverviewFigure,1;
a,1;
a,1;
how,1;
do,1;
we,1;
a,1;
a,1;
files?,1;
does,1;
systems,1;
do,1;
storing,1;
locating,1;
compose,1;
using
implementation-specific,1;
organiza‐
tion,1;
a,1;
stored,1;
efficiency
Records,1;
updates,1;
a,1;
on
disk.
Database,1;
systems,1;
consisting,1;
multiple,1;
where
each,1;
usually,1;
a,1;
using,1;
a,1;
a,1;
systems,1;
indexes:
auxiliary,1;
efficiently,1;
records,1;
built,1;
using,1;
a,1;
record.
A,1;
usually,1;
files:,1;
metadata,1;
records,1;
files.,1;
partitioned,1;
have,1;
a,1;
multiple,1;
disk,1;
be
organized,1;
sequences,1;
records,1;
a,1;
slotted,1;
pages,1;
records,1;
updates,1;
records,1;
systems,1;
do,1;
not,1;
pages,1;
tombstones),,1;
a,1;
a,1;
records,1;
updates,1;
reclaimed,1;
pages,,1;
(i.e.,,1;
records,1;
place,,1;
Files
Data,1;
heap-organized,1;
(heap,1;
files),,1;
not,1;
any,1;
a,1;
additional,1;
pages,1;
additional,1;
pointing,1;
records,1;
records,1;
stored,1;
bucket,1;
a,1;
bucket,1;
stored,1;
in
append,1;
lookup,1;
speed.
Index-organized,1;
records,1;
records,1;
sequentially,1;
records,1;
reduce,1;
disk,1;
traversing,1;
locating,1;
we,1;
do,1;
a,1;
record.
When,1;
records,1;
stored,1;
a,1;
records,1;
containing,1;
For,1;
we,1;
records,1;
bucket,1;
files.,1;
a,1;
records,1;
disk,1;
a,1;
records,1;
a,1;
built,1;
a,1;
a,1;
keys
identified,1;
All,1;
point,1;
A,1;
a,1;
a,1;
index-organized
table.,1;
point,1;
same,1;
a,1;
data
record,1;
through,1;
a,1;
hold
several,1;
records,1;
known,1;
records,1;
usually,1;
stored,1;
a,1;
stored,1;
does,1;
not,1;
A,1;
through,1;
a,1;
entries.
Figure,1;
records,1;
storing,1;
records,1;
often,1;
nonclustered,1;
one.,1;
have,1;
systems,1;
have,1;
explicit,1;
a,1;
record.,1;
create,1;
a,1;
systems:,1;
database
systems,1;
Dynamo-based,1;
stores,1;
document,1;
stores,1;
MongoDB).,1;
often,1;
a,1;
Indirection
There,1;
have,1;
a
complete,1;
implementation.,1;
referencing,1;
we,1;
reduce,1;
have,1;
a,1;
a,1;
process.,1;
reduce,1;
a,1;
higher,1;
a,1;
a,1;
if,1;
consists,1;
does,1;
not,1;
write-heavy,1;
reduce,1;
For,1;
a,1;
a,1;
lookup,1;
how,1;
A,1;
through,1;
a,1;
references,1;
original
source,1;
OverviewFigure,1;
(a),1;
using,1;
a,1;
as
indirection,1;
a,1;
First,,1;
if,1;
still,1;
if,1;
do,1;
caching,,1;
things,1;
them.
In,1;
chapters,,1;
we,1;
B-Trees,1;
have,1;
common,1;
variables:,1;
immutable,1;
out,1;
distinctions,1;
book,1;
not,1;
chooses,1;
a,1;
before,1;
disk.,1;
course,,1;
disk,1;
a,1;
full,1;
talking,1;
imple‐
menters,1;
One,1;
we,1;
book,1;
is
adding,1;
“Lazy,1;
114).,1;
not,1;
we,1;
two-component,1;
on
page,1;
not,1;
reads,1;
at,1;
same,1;
location,1;
Immutable
structures,1;
append-only:,1;
not,1;
imple‐
ment,1;
One,1;
modified,1;
location,1;
B-Trees,1;
immutable,1;
B-Trees,1;
defined,1;
not,1;
records,1;
stored,1;
in
the,1;
pages,1;
disk.,1;
sort,1;
closely,1;
stored,1;
disk.,1;
often,1;
not,1;
we,1;
not,1;
For,1;
records,1;
course,,1;
a,1;
not,1;
show,1;
we’ll,1;
rest,1;
a,1;
we,1;
stores.,1;
for
different,1;
how,1;
we,1;
systems,1;
a,1;
how,1;
we,1;
OverviewLastly,,1;
we,1;
introduced,1;
book,1;
properties,1;
sources:
Database,1;
a,1;
Foundations,1;
Harizopoulos,,1;
Samuel
Madden.,1;
Frans,,1;
Alfons,1;
Alfons.,1;
2017.,1;
Main,1;
Memory,1;
2
B-Tree,1;
we,1;
implementation.,1;
in-
place,1;
mechanism.,1;
operations,,1;
records,1;
target,1;
often,1;
multiple,1;
same,1;
in
the,1;
using,1;
Control”,1;
99),1;
slotted,1;
For,1;
we,1;
a,1;
a,1;
Many,1;
database
systems,1;
majority,1;
cases.
B-Trees,1;
not,1;
a,1;
introduced,1;
popularity,1;
years.,1;
a,1;
Comer,1;
sys‐
tematized,1;
we,1;
we,1;
For,1;
Trees
A,1;
a,1;
lookups.,1;
consist,1;
multiple,1;
a,1;
a,1;
a,1;
a,1;
space,1;
2-2,1;
shows:,1;
a
node,1;
any,1;
stored,1;
subtree,1;
any,1;
subtree,1;
2:,1;
BasicsFollowing,1;
where
nodes,1;
have,1;
a,1;
terminate
before,1;
if,1;
found,1;
a,1;
higher
level.
Tree,1;
do,1;
not,1;
any,1;
specific,1;
pattern,,1;
(i.e.,,1;
than
the,1;
worst-case,1;
we,1;
a,1;
pathological,1;
tree,,1;
a,1;
list,,1;
desired
logarithmic,1;
we,1;
Balanced,1;
(a),1;
pathological,1;
problem,,1;
though,1;
it’s,1;
somewhat,1;
unlikely,1;
on
one,1;
tree,,1;
at,1;
will,,1;
slow
down,1;
defined,1;
a,1;
total
number,1;
tree,,1;
balancing,,1;
we,1;
generally,,1;
a,1;
Trees
|
27In,1;
tree,,1;
lookup,1;
worst-case,1;
we,1;
making,1;
Balancing,1;
done,1;
a,1;
a,1;
step,1;
a,1;
have,1;
we,1;
(3),,1;
a,1;
promoted,1;
step,1;
Storage
As,1;
have,1;
a,1;
worst-case,1;
O(N).
Balanced,1;
give,1;
same,1;
we,1;
have,1;
perform
balancing,,1;
relocate,1;
impractical,1;
we,1;
a,1;
face,1;
One,1;
problem,1;
random,1;
a,1;
written,1;
disk,1;
a,1;
layout,1;
using,1;
on
page,1;
33).
28
|
Chapter,1;
2:,1;
problem,,1;
closely,1;
related,1;
height.
Since,1;
have,1;
a,1;
fanout,1;
a,1;
tree,,1;
we,1;
have,1;
and,,1;
same,1;
disk,1;
have,1;
a,1;
makes,1;
impractical,1;
stor‐
age,1;
would,1;
disk,1;
concept,1;
a,1;
look,1;
would,1;
exhibit,1;
a,1;
would,1;
exhibit,1;
properties:
•,1;
fanout,1;
locality,1;
reduce,1;
inversely,1;
higher,1;
fanout,
the,1;
fanout,1;
and,,1;
height.
Disk-Based,1;
DBMS”,1;
10),1;
same,1;
distinction,1;
disk,1;
we,1;
have,1;
discussed,,1;
not,1;
space,1;
complexity
requirements,1;
data‐
bases,1;
have,1;
often,1;
dataset,1;
not,1;
Only,1;
a,1;
of
the,1;
at,1;
any,1;
rest,1;
stored,1;
disk,1;
efficiently,1;
Disk,1;
wide‐
spread,1;
Later,
new,1;
flash,1;
increase,1;
random,1;
reads,1;
movements,1;
done,,1;
(i.e.,,1;
sequential,1;
transfer,1;
a,1;
a,1;
at,1;
512,1;
positioning,1;
one
of,1;
we,1;
often,1;
positive,1;
effects,1;
sequential,1;
State,1;
Drives
Solid,1;
(SSDs),1;
do,1;
not,1;
have,1;
moving,1;
disk,1;
A,1;
built,1;
arrays,
arrays,1;
pages,,1;
pages,1;
a,1;
cell,1;
multiple,1;
bits,1;
Kb.
Blocks,1;
512,1;
and,,1;
a,1;
SSDs,1;
have,1;
2-5,1;
this
hierarchy.
30
|
Chapter,1;
2:,1;
2-5.,1;
written,1;
a,1;
(i.e.,,1;
have,1;
not,1;
a,1;
a,1;
pages,,1;
often,1;
written,1;
a,1;
flash,1;
responsible,1;
pages,,1;
responsible,1;
erase.,1;
Some,1;
still,1;
pages,1;
point,1;
there.
After,1;
blocks,,1;
making,1;
writes.
Since,1;
SSDs),1;
we,1;
(i.e.,,1;
a,1;
abstraction,1;
disk,1;
a,1;
word,1;
a,1;
containing,1;
a,1;
we,1;
cannot,1;
always,1;
take,1;
SSDs,,1;
we,1;
have,1;
a,1;
random,1;
sequential,1;
I/O,,1;
random,1;
sequential,1;
reads,1;
large.,1;
still,1;
parallelism,1;
though,1;
collection,1;
usually,1;
a,1;
effects,1;
may
negatively,1;
impact,1;
random,1;
full,1;
blocks,,1;
same,1;
reduce,1;
disk,1;
disk,1;
a,1;
a,1;
specific,1;
location,1;
we,1;
have,1;
we,1;
have,1;
do,1;
we,1;
layout,1;
of
the,1;
take,1;
chapter,1;
layout,1;
manually,1;
(unless,,1;
using,1;
still,1;
regular,1;
operations,,1;
we,1;
have,1;
target,1;
precomputed,1;
disk,1;
before,1;
disk.,1;
dependency,1;
and
their,1;
a,1;
target,1;
optimize,1;
disk,1;
accesses.,1;
do,1;
improving
locality,,1;
the
number,1;
pointers.
In,1;
we,1;
high,1;
fanout,1;
properties,1;
additional,1;
space,1;
a,1;
B-Trees,1;
increase,1;
reduce,1;
height,,1;
2:,1;
BasicsPaged,1;
out,1;
a,1;
pages,,1;
shows,,1;
it’s,1;
a,1;
still,1;
nodes
and,1;
out,1;
disk,1;
endeavors,,1;
if,1;
not,1;
random,1;
Balancing,1;
updates.
Figure,1;
a,1;
a,1;
Pooh
B-Trees,1;
a,1;
have,1;
browse,1;
through,1;
a,1;
a,1;
hierarchy,1;
quickly.
As,1;
we,1;
B-Trees,1;
have,1;
higher,1;
fanout,1;
same,1;
often,1;
keys.,1;
tree,,1;
them.
Figure,1;
tree,,1;
same,1;
how,1;
at,1;
cases,,1;
finding,1;
keys.,1;
a,1;
sorted:,1;
stored,1;
Because,1;
that,
to,1;
a,1;
we,1;
B-Trees,1;
have,1;
complexity.,1;
For,1;
finding,1;
a,1;
Lookup
Complexity”,1;
we,1;
a,1;
disk,1;
would,1;
down,,1;
dozens,1;
we,1;
have,1;
disk,1;
jump.,1;
a,1;
lookup,1;
2:,1;
we,1;
efficiently,1;
point,1;
a,1;
<,,1;
multiple,1;
consist,1;
multiple,1;
+,1;
pointers
to,1;
have,1;
connecting,1;
usually,1;
nodes.
This,1;
hierarchy,1;
2-9.
Figure,1;
hierarchy
Since,1;
B-Trees,1;
a,1;
(i.e.,,1;
we,1;
often,1;
is
called,1;
fanout:,1;
stored,1;
fanout,1;
reduce,1;
storing,1;
a,1;
multiple,1;
Balancing,1;
full,1;
nearly,1;
empty.
Ubiquitous,1;
using,1;
a,1;
family,1;
A,1;
a,1;
high,1;
fanout,1;
storing,1;
any,1;
Internal,1;
stored,1;
stored,1;
propagate
to,1;
higher,1;
we,1;
litera‐
ture,1;
For,1;
[GRAEFE11],1;
a,1;
Keys
Keys,1;
stored,1;
stored,1;
A,1;
found,1;
locating,1;
a,1;
a,1;
subtree,1;
subtree,1;
or
equal,1;
keys:,1;
Ki-1
≤,1;
<,1;
a,1;
a,1;
a,1;
2:,1;
have,1;
often,1;
going,1;
Some,1;
implementations,1;
have,1;
forming,1;
list,1;
makes,1;
reverse,1;
B-Trees,1;
built,1;
binary
search,1;
tree
height.
Since,1;
B-Trees,1;
space,1;
tree
storage,1;
50%,,1;
usually,1;
does,1;
not,1;
lookup,1;
standpoints:,1;
block
transfers,1;
done,1;
lookup.
In,1;
a,1;
space,1;
at,1;
pages,1;
a,1;
have,1;
root-to-leaf,1;
perspective,1;
a,1;
done,1;
using,1;
Every,1;
distinction,1;
gain,1;
how,1;
lookup,1;
lookup,1;
log,1;
not,1;
analysis,,1;
a,1;
a,1;
does,1;
complexity.,1;
For,1;
given,1;
O(|c|,1;
[KNUTH97].
2,1;
For,1;
[KNUTH98].
Ubiquitous,1;
B-Trees
|
37B-Tree,1;
we,1;
have,1;
we,1;
a,1;
have,1;
a,1;
a,1;
match,1;
finding,1;
and
inserts.
The,1;
a,1;
search,,1;
stored,1;
value.,1;
a,1;
keys.,1;
we,1;
we,1;
cor‐
responds,1;
same,1;
we,1;
a,1;
target,1;
we,1;
either,1;
key
or,1;
not,1;
locating,1;
we,1;
a,1;
we,1;
coarse-
grained,1;
represent
more,1;
ranges,,1;
we,1;
leaves,,1;
records,1;
point,1;
done,1;
finding,1;
searched
key.,1;
closest,1;
found,1;
the
range,1;
Keys
Across,1;
mentions,1;
device-dependent,1;
at,1;
+,1;
at,1;
+,1;
keys.,1;
Later,,1;
a,1;
introduced,,1;
it
is,1;
any,1;
have,1;
+,1;
+,1;
invariants.
Both,1;
bring,1;
same,1;
empha‐
size,1;
we,1;
(or
key-value,1;
pairs,,1;
2:,1;
BasicsB-Tree,1;
a,1;
we,1;
have,1;
target,1;
For,1;
we,1;
section.
After,1;
Updates,1;
locating,1;
a,1;
target,1;
using,1;
a,1;
lookup,1;
a,1;
target,1;
have,1;
we,1;
if,1;
hold:
•,1;
For,1;
if,1;
pairs,,1;
For,1;
if,1;
+,1;
+,1;
done,1;
transferring,1;
we,1;
at,1;
is
called,1;
point,1;
All,1;
point,1;
rest,1;
full,1;
does,1;
not,1;
have,1;
space,1;
promoted,1;
created,1;
might
propagate,1;
recursively,1;
reaches,1;
(i.e.,,1;
we,1;
have,1;
a,1;
point,1;
entries),1;
along,1;
created,1;
increasing,1;
one.,1;
a,1;
horizontally.
Figure,1;
a,1;
fully,1;
full,1;
rest,1;
one.,1;
A,1;
point,1;
a,1;
key.
Ubiquitous,1;
2-11.,1;
promoted,1;
key
are,1;
a,1;
fully,1;
(i.e.,,1;
a,1;
we,1;
create,1;
a,1;
+,1;
point,1;
promoted
key,1;
always,1;
a,1;
manifestation,1;
we,1;
have,1;
additional,1;
created,1;
next
level).,1;
does,1;
not,1;
have,1;
(i.e.,,1;
done,,1;
we,1;
have,1;
have,1;
For,1;
we,1;
inserted,1;
promoted,1;
we,1;
finish,1;
we,1;
created,1;
2:,1;
BasicsTo,1;
done,1;
four,1;
a,1;
Copy,1;
a,1;
a,1;
done,1;
locating,1;
target,1;
key
and,1;
have,1;
(i.e.,,1;
falls,1;
a,1;
thres‐
hold),,1;
underflow,1;
if,1;
have,1;
a,1;
common,1;
and
their,1;
a,1;
do,1;
not,1;
a,1;
to
restore,1;
hold:
•,1;
For,1;
if,1;
a,1;
pairs,,1;
a,1;
For,1;
if,1;
a,1;
+,1;
a,1;
+,1;
2-13,1;
do,1;
we,1;
one.,1;
done,1;
B-Trees
|
41Figure,1;
have,1;
deletion
of,1;
we,1;
we,1;
two.,1;
we,1;
have,1;
cor‐
responding,1;
(i.e.,,1;
is
reduced,1;
a,1;
Just,1;
can
propagate,1;
done,1;
Copy,1;
a,1;
node.
One,1;
often,1;
B-Trees,1;
reduce,1;
we,1;
we,1;
a,1;
create,1;
have,1;
suitable,1;
disk,1;
fanout,1;
a,1;
updates,1;
B-Trees,1;
problems,1;
stored,1;
we,1;
2:,1;
a,1;
still,1;
create,1;
create,1;
a,1;
we,1;
how,1;
out,1;
compose,1;
layout,1;
using,1;
data-encoding,1;
formats.
Further,1;
sources:
Binary,1;
Wayne.,1;
Boston:
Pearson.
Knuth,,1;
E.,1;
1997.,1;
(3rd,1;
Algorithms.,1;
Addison-Wesley,1;
Abraham,,1;
Sudarshan.,1;
(6th,1;
B-Trees,1;
we,1;
how,1;
exactly
B-Trees,1;
disk.,1;
disk,1;
a,1;
how,1;
we,1;
Because,1;
we,1;
do,1;
not,1;
have,1;
Disks,1;
are
accessed,1;
using,1;
usually,1;
have,1;
to
specify,1;
target,1;
interpret,1;
into
a,1;
suitable,1;
memory.
This,1;
have,1;
do,1;
we,1;
have,1;
a,1;
construct,
modify,,1;
we’ll,1;
not,1;
we,1;
things,1;
have,1;
together,1;
final,1;
somewhat,1;
B-Trees,1;
a,1;
have,1;
compose,1;
have,1;
B-Trees,1;
we,1;
splitting,,1;
applicable,1;
Later,,1;
talking,1;
maintenance,,1;
a,1;
how,1;
we,1;
create,1;
lan‐
guages,1;
a,1;
we,1;
like,,1;
using,1;
we,1;
a,1;
we,1;
pointers.
Languages,1;
memory
any,1;
we,1;
not,1;
a,1;
we,1;
free,1;
we,1;
have,1;
take,1;
collection,1;
layout,1;
disk.,1;
For,1;
a,1;
we,1;
out,1;
disk,1;
a,1;
a,1;
serialize,1;
who,1;
a,1;
C,1;
additional,1;
have,1;
a,1;
predefined
size,,1;
released,1;
still,1;
use.
When,1;
storing,1;
problems,1;
layout,1;
exist,,1;
solved,1;
using,1;
For,1;
do,1;
not,1;
out,1;
still,1;
take,1;
CPU,1;
lines,,1;
done,1;
though,1;
take,1;
responsibili‐
ties,,1;
Encoding
To,1;
disk,1;
using,1;
a,1;
compact
and,1;
serialize,1;
deserialize.,1;
talking,1;
layout,1;
we,1;
do,1;
not,1;
have,1;
we,1;
have,1;
data
accordingly.
Here,,1;
we,1;
create,1;
layouts.,1;
any,1;
format:,1;
create,1;
communication,1;
we,1;
records,1;
pages,,1;
we,1;
how,1;
represent
keys,1;
records,1;
how,1;
multiple,1;
how,1;
have,1;
a,1;
string,,1;
from),1;
forms.
Most,1;
values.,1;
same,1;
sequential,1;
most-significant,1;
(MSB),,1;
least-significant,1;
this.,1;
using,1;
3-1.,1;
gray.
Addresses,,1;
a,1;
a,1;
order,
RocksDB,1;
platform-specific,1;
target,1;
byte
order.1,1;
target,1;
does,1;
not,1;
match,1;
kLittleEndian,1;
using,1;
EndianTransform,,1;
reads,1;
reverse,1;
consist,1;
strings,,1;
transferring,1;
storing,1;
we,1;
sequences.,1;
we,1;
have,1;
and,,1;
before,1;
we,1;
we,1;
have,1;
we,1;
always,1;
Different,1;
8,1;
bits).
Floating-point,1;
a,1;
value.,1;
For,1;
a,1;
a,1;
bits
represent,1;
a,1;
fraction,,1;
8,1;
bits,1;
not,1;
a,1;
using,1;
yields,1;
a,1;
we,1;
basics.
The,1;
a,1;
have,1;
kLittleEndian
variable,1;
not,1;
little-endian.
48
|
Chapter,1;
Variable-Size,1;
have,1;
a,1;
C.,1;
a,1;
string,,1;
size
bytes:,1;
For,1;
strings,,1;
often,1;
String,1;
String,,1;
alternative,1;
null-terminated,1;
strings,,1;
reader,1;
finding,1;
out,1;
a,1;
a,1;
through,1;
contents,,1;
a,1;
composed,1;
Booleans,,1;
either,1;
using,1;
a,1;
values.,1;
a,1;
using,1;
often,1;
together,1;
often,1;
communication,1;
low-cardinality,1;
values.,1;
For,1;
we,1;
a,1;
NodeType,1;
packing
here:,1;
closely,1;
related,1;
concept,1;
flags,,1;
a,1;
combination,1;
enums.,1;
parameters.
For,1;
we,1;
flags,1;
not,1;
variable-size,,1;
not,1;
pages,1;
a,1;
we,1;
(since,1;
always,1;
have,1;
8,1;
etc.):
int,1;
#2
int,1;
0x04h;,1;
written,1;
bitmasks,1;
For,1;
a,1;
responsible
for,1;
flags,,1;
we,1;
OR,1;
a,1;
a,1;
bitshift,1;
a,1;
we,1;
not,1;
n,1;
we,1;
a,1;
0:
//,1;
HAS_OVERFLOW_PAGES;
flags,1;
not,1;
a,1;
deciding,1;
how,1;
going,1;
going,1;
pages,,1;
a,1;
multiple,1;
pages,1;
same,1;
simplifies,1;
write
access.,1;
often,1;
records,1;
and,,1;
usually,1;
a,1;
a,1;
rest,1;
rest,1;
FormatsFigure,1;
stores,1;
have,1;
a,1;
fields
the,1;
a,1;
reduce,1;
we,1;
we,1;
a,1;
storing,1;
we,1;
could,1;
could,1;
number),1;
of
the,1;
(3,1;
date
|,1;
byte),1;
(2,1;
(2,1;
we,1;
last_name,,1;
we,1;
of
the,1;
calculations,1;
multiple,1;
we,1;
locate
any,1;
usually,1;
out,1;
primitives,,1;
composed,1;
pages,1;
composed,1;
pages,,1;
composed,1;
on.,1;
have,1;
depends,1;
create,1;
often,1;
consist,1;
multiple,1;
a,1;