TACE,1;
A,1;
A,1;
C,1;
A,1;
F,1;
C,1;
S
JON,1;
GJENGSETRUST,1;
C,1;
A,1;
y,1;
Jon,1;
j,1;
n,1;
s,1;
2022,1;
Jon,1;
Gjengset.
All,1;
reserved.,1;
reproduced,1;
transmitted,1;
any,1;
any,1;
including,1;
any,1;
prior,1;
written,1;
printing
25,1;
978-1-7185-0186-7,1;
Editor:,1;
Franklin
Production,1;
Editor:,1;
Editor:,1;
Barry
Interior,1;
Tolnay
Copyeditor:,1;
Barry
Indexer:,1;
book,1;
please,1;
Press,,1;
Press,,1;
94103
phone:,1;
registered,1;
Press,,1;
respective,1;
a,1;
a,1;
we,1;
using,1;
editorial,1;
fashion,1;
intention,1;
of
the,1;
book,1;
basis,,1;
While,1;
preparation,1;
Press,,1;
shall,1;
have,1;
any,1;
person,1;
any,1;
alleged,1;
Author
Jon,1;
worked,1;
built,1;
a,1;
his,1;
PhD,1;
at,1;
He’s,1;
a,1;
contributor
to,1;
toolchain,1;
including,1;
Jon,1;
2018,,1;
he,1;
live-stream-
ing,1;
he’s,1;
made
videos,1;
async,1;
await,,1;
have,1;
Reviewer
David,1;
a,1;
contributor,1;
who,1;
a,1;
CONTENTS
Foreword,1;
xix
Introduction,1;
Foundations,1;
1
Chapter,1;
2:,1;
19
Chapter,1;
Interfaces,1;
57
Chapter,1;
(and,1;
Interfaces,1;
12:,1;
Memory,1;
Terminology,1;
5
Ownership,1;
Mutability,1;
Memory,1;
19
Alignment,1;
Sized,1;
Wide,1;
24
Compilation,1;
28
Coherence,1;
28Trait,1;
33
Existential,1;
35
3
DESIGNING,1;
Arguments,1;
Safety,1;
Owned,1;
Blocking,1;
System,1;
58
Enumeration,1;
58
Opaque,1;
Crate,1;
73
Conditional,1;
78
Versioning,1;
Supported,1;
Version,1;
83
Unreleased,1;
Harness,1;
86
#[cfg(test)],1;
100
7
MACROS
101
Declarative,1;
104
How,1;
Cost,1;
a,1;
Macro,1;
Do,1;
Interfaces,1;
Interfaces,1;
121
async/await,1;
124
Pin,1;
133
Waking,1;
Poll,1;
Contract,1;
a,1;
136
Tasks,1;
136
Tying,1;
All,1;
140
9
UNSAFE,1;
Power,1;
Go,1;
Check,1;
163
Read,1;
165
Summary,1;
168
Performance,1;
172
Shared,1;
Memory,1;
173
Actors,1;
174
Asynchrony,1;
Parallelism,1;
177
Memory,1;
178
Memory,1;
Fetch,1;
Simple,1;
Stress,1;
189
Summary,1;
192
11
FOREIGN,1;
Scripts,1;
Memory,1;
Initialization,1;
216
Low-Level,1;
Memory,1;
224
Tools,1;
230
Patterns,1;
233
Drop,1;
Date,1;
237
What,1;
Doing,1;
240
Learn,1;
WORD
Dear,1;
far,,1;
it’s,1;
likely,1;
have,1;
a,1;
learning
resources,1;
have,1;
tier,1;
do,1;
commonly,1;
a,1;
co-occurrence
of,1;
and
building,1;
book,1;
those
things.
However,,1;
it’s,1;
a,1;
fundamental,1;
book,1;
helpful,1;
a,1;
it’s,1;
not,1;
book,1;
a,1;
tradeoffs,1;
does,1;
not,1;
we,1;
have,1;
have,1;
But,1;
effective,1;
testing,1;
you
down,1;
Language
(a.k.a.,1;
not,1;
going,1;
have,1;
a,1;
manifesting,1;
innovative,1;
book,1;
begin,1;
personal,1;
take,1;
a,1;
a,1;
better.
I,1;
encourage,1;
point,1;
consciously.,1;
free,1;
we,1;
that
the,1;
best,1;
how,1;
have,1;
gotten
to,1;
listed,1;
Rustaceans—those,1;
who,1;
a,1;
of
the,1;
call,1;
me,1;
live-streaming,1;
systems,1;
concepts,,1;
would,1;
My,1;
through,1;
development,1;
including,1;
how,1;
While,1;
a,1;
could,1;
same,1;
things,1;
likely,1;
would,1;
learning,1;
along,1;
videos,1;
a,1;
also
became,1;
videos,1;
prefer,1;
learning,1;
have,1;
a,1;
consume,1;
at,1;
pace.
Others,1;
a,1;
out,1;
specific,1;
best,1;
a,1;
six-hour
coding,1;
made,1;
me,1;
My,1;
topics.
I,1;
book,1;
would,1;
best,1;
gain,1;
a,1;
yourself,1;
daily,,1;
someone,1;
But,1;
found,1;
a,1;
place,,1;
videos,1;
short.,1;
sessions,1;
book,1;
mecha-
nisms,,1;
a,1;
of
the,1;
at,1;
have,1;
attempt,1;
at,1;
hole,1;
resources.,1;
fulfilling,1;
written,1;
a,1;
book,1;
little,1;
would,1;
a,1;
blog
posts,,1;
a,1;
a,1;
writing,,1;
rewriting,,1;
editing.,1;
I’m
incredibly,1;
grateful,1;
girlfriend,,1;
Talia,,1;
has
shown,1;
nights,1;
would,1;
have,1;
book,1;
could,1;
have,1;
happened,1;
who,1;
have,1;
a,1;
a,1;
joy,1;
am,1;
best,1;
same,1;
would,1;
a,1;
book,1;
support,,1;
curiosity.
This,1;
book,1;
would,1;
not,1;
have,1;
not,1;
who,1;
technical
reviewer.,1;
finding,1;
code,,1;
his,1;
experience,,1;
pedagogy,1;
made,1;
a,1;
com-
ments,1;
sometimes,1;
made,1;
me,1;
always,1;
made,1;
same,1;
Chadwick,,1;
rest,1;
team,1;
at,1;
Starch.,1;
through,1;
along,1;
comments,1;
showed,1;
along,1;
the
intermediate,1;
always,1;
illuminating,,1;
not,1;
Carol,1;
Language,,1;
book,1;
at,1;
a,1;
could,1;
not,1;
done,1;
fundamentals,1;
give,1;
a,1;
you.,1;
Yes,,1;
you!,1;
Writing,1;
book,1;
a,1;
it’s,1;
and
encouragement,1;
me,1;
going
throughout,1;
it’s,1;
who,1;
a,1;
desire,1;
understanding,1;
and
skills,1;
me,1;
collection,1;
best,1;
any,1;
what
you,1;
always,1;
idioms,,1;
designs,1;
and
which,1;
do,1;
not,,1;
tools,1;
in
the,1;
ecosystem.,1;
distill,1;
a,1;
though
it’s,1;
any,1;
wants,1;
basics,
wherever,1;
book,1;
concepts
such,1;
code,,1;
no_std,1;
code,,1;
cov-
ers,1;
I/O,,1;
testing,,1;
explain,1;
powerful,1;
going,1;
book,1;
written,1;
a,1;
a,1;
reference.,1;
particularly
interest,1;
causing,1;
finish,1;
a,1;
experience.,1;
do,1;
development.,1;
a,1;
you’ll,1;
Foundations,,1;
variables,,1;
lifetimes,1;
you’ll,1;
book.
Chapter,1;
similarly,1;
provides,1;
a,1;
Rust,,1;
including,1;
how,1;
restrictions,,1;
a,1;
Interfaces,,1;
covers,1;
how,1;
misuse-resistant,,1;
including,1;
how,1;
how,1;
enforce,1;
4,,1;
errors
(enumerated,1;
defined,,1;
propagated,,1;
Structure,,1;
a,1;
metadata,1;
how,1;
testing,1;
harness
works,1;
testing,1;
tools,1;
tests,,1;
Macros,,1;
covers,1;
how,1;
for,,1;
interfaces,1;
how,1;
asynchrony,1;
at,1;
level
of,1;
at,1;
high,1;
async,1;
explains,1;
role,1;
how,1;
async,1;
machinery,1;
9,,1;
Code,,1;
explains,1;
unlocks,1;
responsibilities,1;
common,1;
reduce,1;
(and,1;
at,1;
how,1;
covers,1;
how,1;
related,1;
not,1;
how,1;
how,1;
programs.
Chapter,1;
Interfaces,,1;
how,1;
do.
Chapter,1;
using,1;
full,1;
constrained,1;
a,1;
aims,1;
give,1;
common,1;
patterns,,1;
best,1;
tools,1;
any,1;
book,1;
a,1;
at,1;
to
resources,1;
at,1;
at,1;
out,1;
main(),1;
Rust,,1;
it’s,1;
have,1;
a,1;
understanding,1;
Rust,,1;
any,1;
meaning,1;
various,1;
begin,1;
ways.,1;
this
chapter,,1;
we’ll,1;
through,1;
primitives
and,1;
define,1;
mean,,1;
how,1;
we’ll,1;
look,1;
at,1;
how,1;
how,1;
a,1;
lifetimes,1;
you’ll,1;
have,1;
before,1;
chapter,1;
if,1;
a,1;
brush,1;
content,1;
understanding,1;
using,1;
created,1;
have,1;
a,1;
a,1;
text,1;
nonvolatile
RAM.,1;
a,1;
how,1;
accessible,,1;
some
are,1;
how,1;
we,1;
variables,,1;
A,1;
a,1;
values.,1;
A,1;
a,1;
using,1;
a,1;
programmer,,1;
a,1;
A,1;
value’s,1;
meaning,1;
stored,1;
a,1;
place,,1;
a,1;
value.”,1;
common,1;
a,1;
a,1;
slot,1;
a,1;
a,1;
a,1;
A,1;
value
stored,1;
location,1;
same,1;
have,1;
multiple,1;
same,1;
location,1;
same,1;
Listing,1;
y,1;
&x;
let,1;
&x;
1,1;
&y;
Listing,1;
variables,,1;
four,1;
distinct,1;
y,1;
four,1;
variables:,1;
type,
because,1;
references,1;
While,1;
same,1;
we,1;
stored,1;
does,1;
not,1;
stores,1;
place
named,1;
distinction,1;
variables,,1;
a,1;
though,1;
we,1;
assign,1;
a,1;
string,,1;
a,1;
value
"Hello,1;
not,1;
point,1;
hang,1;
does,1;
have,1;
a,1;
a,1;
we,1;
Depth
The,1;
a,1;
unlikely,1;
code,,1;
a,1;
accurate,1;
through,1;
we,1;
would,1;
take,1;
broadly,1;
models.
High-level,1;
at,1;
are
reasoning,1;
suffice,1;
we,1;
we,1;
given,1;
a,1;
program.,1;
assign,1;
a,1;
variable.,1;
a,1;
accessed,,1;
imagine,1;
a,1;
a,1;
dependency,1;
accesses.,1;
a,1;
a,1;
exists,1;
a,1;
a,1;
dependency,1;
lines,,1;
often,1;
flows,,1;
a,1;
a,1;
value.,1;
Flows,1;
a,1;
distinct,1;
value.,1;
at,1;
any,1;
given,1;
point,1;
cannot,1;
a,1;
a,1;
a,1;
value.,1;
Listing,1;
would,1;
illegal,,1;
a,1;
above:
2,1;
y,1;
a,1;
second,,1;
x:
3,1;
43;
//,1;
y,,1;
assignment,1;
1-2:,1;
we,1;
cannot,1;
before,1;
we,1;
have,1;
Only,1;
we,1;
assign,1;
a,1;
we,1;
(&mut),1;
shared,1;
through,1;
exclusive
flow,1;
at,1;
shared,1;
at,1;
a,1;
shared,1;
a,1;
at,1;
same,1;
if,1;
not,1;
would,1;
shared,1;
would,1;
at,1;
at,1;
would,1;
a,1;
same,1;
a,1;
still,1;
distinct,1;
later
variable,1;
same,1;
coexist,
though,1;
a,1;
one.,1;
matches,1;
how,1;
internally,1;
code.
Low-Level,1;
not,1;
values.
You,1;
a,1;
a,1;
assign,1;
you
access,1;
slot,1;
would,1;
A,1;
a,1;
1get,1;
at,1;
value.,1;
For,1;
a,1;
a,1;
a,1;
though,1;
does,1;
not,1;
have,1;
a,1;
slot,1;
If
you,1;
assign,1;
a,1;
bits,1;
does,1;
not,1;
multiple,1;
same,1;
C,1;
memory.
NOTE
In,1;
we,1;
CPU,1;
a,1;
a,1;
a,1;
matches,1;
other,,1;
valid,,1;
a,1;
complicated,1;
do,1;
do,1;
not
compile,1;
expect.
Memory,1;
have,1;
a,1;
grip,1;
how,1;
we,1;
we,1;
about
what,1;
and
perhaps,1;
not,1;
stored,1;
a,1;
impact,1;
how,1;
a,1;
uses,1;
scratch,1;
space
for,1;
a,1;
called,,1;
a,1;
a,1;
frame,1;
at,1;
frame,1;
call,1;
additional,1;
pushed,1;
A,1;
along,1;
any,1;
frame,1;
immediately,1;
it’s,1;
not,1;
a,1;
call,1;
frame,1;
reclaimed,1;
one.,1;
if,1;
the
function,1;
closely,1;
lifetimes,1;
stored,1;
cannot,1;
frame,1;
must,1;
have,1;
a,1;
at,1;
of
the,1;
a,1;
call,1;
a,1;
calling
function,1;
space,1;
write
that,1;
before,1;
But,1;
if,1;
at
all,,1;
do,1;
a,1;
often,1;
C,1;
do,1;
not,1;
away,1;
a,1;
a,1;
place,,1;
value.,1;
differ-
ently,,1;
given,1;
a,1;
leaking,1;
usually,1;
For,1;
example,
say,1;
have,1;
a,1;
a,1;
Memory
Static,1;
a,1;
catch-all,1;
closely,1;
related,1;
are
automatically,1;
program’s,1;
program’s,1;
program’s,1;
usually,1;
executes,,1;
text,1;
a,1;
Static,1;
code,,1;
marks,1;
a,1;
a,1;
a,1;
a,1;
not,1;
inverse,1;
not,1;
do,1;
not,1;
point,1;
memory—but,1;
still,1;
once
you,1;
create,1;
a,1;
a,1;
whatever,1;
rest,1;
often,1;
will
encounter,1;
often,1;
A,1;
bound,1;
we,1;
for,,1;
program.,1;
self-sufficient,,1;
either,1;
does,1;
not,1;
does,1;
program.,1;
A,1;
a,1;
bound,1;
a,1;
closure,1;
new
thread,1;
cannot,1;
any-
thing,1;
stored,1;
wonder,1;
how,1;
constant.,1;
completely,1;
at,1;
time,
and,1;
any,1;
replaced,1;
constant’s,1;
compilation.,1;
A,1;
a,1;
a,1;
a,1;
have,1;
a,1;
location,1;
a,1;
responsible,1;
value.,1;
through,1;
a,1;
a,1;
location,1;
one.,1;
through,1;
though,1;
bits,1;
technically,1;
still,1;
there.
Instead,,1;
must,1;
through,1;
location.
Some,1;
do,1;
not,1;
a,1;
value’s,1;
Copy,1;
trait,,1;
not,1;
have,1;
even
if,1;
a,1;
same,1;
at,1;
the
move.,1;
Rust,,1;
must,1;
copying,1;
eliminates,1;
any,1;
a,1;
must,1;
would,1;
if,1;
a,1;
Copy.
If,1;
we,1;
executed,1;
would,1;
would,1;
free,1;
out,1;
twice
could,1;
have,1;
a,1;
value’s,1;
do,1;
any,1;
Rust,,1;
drop-
ping,1;
usually,1;
recursively,1;
drop-
ping,1;
a,1;
a,1;
dropped.
Because,1;
we,1;
cannot,1;
accidentally
drop,1;
same,1;
multiple,1;
A,1;
a,1;
does,1;
not,1;
Listing,1;
a,1;
copy,1;
a,1;
y1);
//,1;
out,1;
dropped;
//,1;
drops,1;
x1's,1;
not,1;
x2,1;
not,1;
z
4,1;
copying,1;
out,1;
a,1;
containing,1;
we,1;
copied,1;
z,,1;
z.,1;
4,,1;
any,1;
attempt,1;
would,1;
a,1;
compiler
error.,1;
out,1;
drops,1;
copied,1;
drops,1;
out,1;
Listing,1;
weird,1;
at,1;
we,1;
look,1;
at,1;
though,,1;
makes,1;
a,1;
lot,1;
Say,1;
a,1;
declares
a,1;
a,1;
a,1;
must,1;
first;,1;
if,1;
would,1;
references,1;
drops,1;
reverse,1;
we,1;
could,1;
have,1;
same,1;
a,1;
tuple,,1;
struct,,1;
would,1;
likely,1;
if,1;
same,1;
intui-
tive,1;
on.,1;
variables,,1;
reverse,1;
a,1;
intuitive,1;
a,1;
lend,1;
out,1;
through,1;
come
with,1;
additional,1;
how,1;
provides,1;
have,1;
references,1;
point,1;
References
A,1;
shared,1;
&T,,1;
a,1;
references,1;
same,1;
shared,1;
shared,1;
references,1;
not,1;
cannot,1;
a,1;
shared,1;
a,1;
a,1;
a,1;
shared,1;
not,1;
lives.,1;
For,1;
if,1;
a,1;
shared,1;
multiple
times,1;
a,1;
Listing,1;
fail.
Foundations
9fn,1;
cache(input:,1;
{
*sum,1;
+,1;
*input);
}
Listing,1;
assumes,1;
shared,1;
references,1;
not,1;
chooses,1;
a,1;
given,1;
do,1;
rather
than,1;
does,1;
a,1;
at,1;
a,1;
alternative,1;
a,1;
shared,1;
a,1;
T.,1;
full,1;
of
the,1;
assumes,1;
target,1;
through,1;
a,1;
a,1;
one.,1;
assumes,1;
mutable
reference,1;
noalias(input:,1;
*output,1;
if,1;
3;
}
}
Listing,1;
1-5:,1;
assumes,1;
references,1;
Rust,,1;
do,1;
not,1;
point,1;
to
the,1;
same,1;
at,1;
cannot,1;
affect
the,1;
at,1;
a,1;
could,1;
not,1;
contract,
that,1;
would,1;
could,1;
3,1;
a,1;
location,1;
that
the,1;
lie,1;
depends,1;
consider
Listing,1;
y,1;
y,1;
Mutability,1;
immediately,1;
memory.
10
Chapter,1;
y,1;
a,1;
making,1;
a,1;
cannot,1;
y,1;
through,1;
z,,1;
cannot,1;
a,1;
owning,1;
a,1;
a,1;
mutable
reference,1;
responsible,1;
do,1;
through,1;
if,1;
if,1;
must,1;
not,,1;
would,1;
still,1;
would,1;
drop!
Listing,1;
a,1;
reference.
fn,1;
replace_with_84(s:,1;
not,1;
would,1;
we,1;
exchange,1;
std::mem::swap(s,,1;
s,1;
s);
5
Listing,1;
through,1;
a,1;
must,1;
a,1;
behind.
I’ve,1;
commented-out,1;
You
cannot,1;
out,1;
would,1;
still,1;
would,1;
free,1;
at,1;
a,1;
If
you,1;
a,1;
equivalent,1;
out,1;
a,1;
a,1;
at,1;
if,1;
a,1;
do,1;
behind
the,1;
if,1;
have,1;
owning,1;
either,1;
4,,1;
references,1;
meaning,1;
through,1;
a,1;
shared,1;
reference.,1;
usually,1;
atomic,1;
CPU,1;
instructions),1;
a,1;
reference
through,1;
a,1;
shared,1;
a,1;
a,1;
shared,1;
category,1;
consists,1;
ensure,1;
any,1;
give,1;
a,1;
mutable
reference,1;
(and,1;
shared,1;
at,1;
a,1;
(and,1;
rely
on,1;
a,1;
immediately,1;
9,,1;
through
a,1;
shared,1;
categories,1;
not,1;
give,1;
out,1;
a,1;
atomic,1;
You
cannot,1;
a,1;
a,1;
at,1;
a,1;
given,1;
point,1;
through,1;
not,1;
out,1;
either,1;
a,1;
copy,1;
value.,1;
references,1;
always,1;
okay,1;
though,1;
through,1;
a,1;
shared,1;
reference.
Lifetimes
If,1;
you’re,1;
you’re,1;
likely,1;
through,1;
understanding,1;
majority,1;
we,1;
Rust,,1;
a,1;
to
work,1;
often,1;
lifetimes,1;
cor-
responding,1;
a,1;
take,1;
a,1;
out,1;
That’s
often,1;
usually,1;
useful,,1;
reality,1;
a,1;
little,1;
a,1;
a,1;
must,1;
While,1;
a,1;
a,1;
does,1;
we,1;
heart,1;
lifetimes,1;
a,1;
still,1;
does,1;
reference
was,1;
point,1;
uses,1;
along,1;
still,1;
“data,1;
we,1;
that
the,1;
we,1;
does,1;
not,1;
any,1;
flows.
Listing,1;
a,1;
{
2,1;
*x,1;
{
3,1;
r);,1;
do,1;
not,1;
contiguous.
The,1;
at,1;
we,1;
take,1;
a,1;
we,1;
immediately,1;
a,1;
out,1;
a,1;
reference
to,1;
immediately,1;
uses,1;
a,1;
if,1;
still,1;
at,1;
out,1;
at,1;
But,1;
if,1;
created,1;
at,1;
does,1;
not,1;
at,1;
uses,1;
(2,1;
we,1;
at,1;
Listing,1;
would,1;
would,1;
a,1;
at,1;
2.
Lifetimes,1;
Listing,1;
a,1;
it’s,1;
it
starts,1;
ends.
Foundations
13let,1;
{
2,1;
z);
//,1;
Box::new(i);
4,1;
z);
//,1;
have,1;
holes.
The,1;
at,1;
we,1;
take,1;
a,1;
at,1;
at,1;
at,1;
we,1;
by
updating,1;
final,1;
have,1;
a,1;
from,,1;
we,1;
existing.,1;
we,1;
later,
we,1;
exists,1;
z.,1;
not,1;
be,,1;
it’s,1;
a,1;
consequences,1;
could,1;
help
to,1;
a,1;
we,1;
have,1;
references,1;
have,1;
a,1;
various,1;
if,1;
a,1;
a,1;
that
outlives,1;
a,1;
generic,1;
generic,1;
Carol,1;
Press,,1;
won’t,1;
But,1;
lifetimes,1;
aware,1;
if,1;
a,1;
any,1;
generic,1;
any,1;
generic,1;
lifetimes,1;
before,1;
does,1;
any,1;
does,1;
not,1;
does,1;
not,1;
a,1;
free,1;
any,1;
references,1;
stored,1;
do,1;
not,1;
we,1;
saw,1;
Listing,1;
9.
Second,,1;
a,1;
generic,1;
multiple,1;
often,1;
serves,1;
unnecessarily,1;
a,1;
generic,1;
a,1;
shorter,1;
lifetimes,1;
any,1;
references,1;
inserted,1;
multiple,1;
generic,1;
if,1;
have,1;
a,1;
multiple,1;
references,1;
Listing,1;
a,1;
a,1;
&'p,1;
->,1;
{
todo!()
}
}
fn,1;
->,1;
1-10:,1;
A,1;
generic,1;
multiple,1;
have,1;
give,1;
search,,1;
references,1;
values.,1;
string,,1;
a,1;
what
would,1;
if,1;
a,1;
would,1;
document,1;
delimiter.
This,1;
would,1;
would,1;
a,1;
String,1;
to_string—and,1;
would,1;
a,1;
concept,1;
programmers,1;
often,1;
it’s,1;
a,1;
variance
describes,1;
a,1;
a,1;
(and,1;
vice,1;
versa).,1;
a,1;
A,1;
if,1;
A,1;
at,1;
B.,1;
a,1;
Turtle,1;
a,1;
a,1;
Rust,,1;
a,1;
&'static,1;
a,1;
usually,1;
out,1;
often,1;
we,1;
have,1;
a,1;
Turtle,1;
a,1;
a,1;
Turtle,1;
“useful”,1;
Animal—a,1;
Turtle
can,1;
do,1;
likely,1;
a,1;
lives,1;
at,1;
any,1;
generally,,1;
if,1;
'b:,1;
a,1;
not,1;
use.
All,1;
have,1;
a,1;
A,1;
if,1;
a,1;
subtype
in,1;
For,1;
if,1;
a,1;
pro-
vide,1;
a,1;
&'static,1;
a,1;
&Vec<&'static,1;
a,1;
str>.
Some,1;
must,1;
exactly
the,1;
given,1;
a,1;
a,1;
cannot,1;
a,1;
T.,1;
could,1;
put,1;
a,1;
would,1;
provides,1;
same,1;
T.
The,1;
if,1;
okay,1;
arguments,1;
clearer,1;
if,1;
&'static,1;
useful,,1;
lives,1;
useful,,1;
lives,1;
take_func1(&'static,1;
str),1;
useful
This,1;
flipped,1;
Fn(T),1;
do,1;
how,1;
generic,1;
a,1;
Listing,1;
uses,1;
multiple,1;
lifetimes,1;
a,1;
MutStr<'a,,1;
s,1;
s,1;
A,1;
generic,1;
multiple,1;
using,1;
lifetimes,1;
have,1;
a,1;
of
the,1;
we,1;
Listing,1;
But,1;
if,1;
lifetimes,1;
a,1;
it’s,1;
variance.
NOTE
The,1;
at,1;
equivalent,1;
defining,1;
a,1;
must,1;
must,1;
we,1;
attempt,1;
s,1;
through,1;
a,1;
s
used,1;
shared,1;
two-lifetime,1;
before,1;
we,1;
into
issues.,1;
wants,1;
do,1;
have,1;
str.,1;
While,1;
&'static,1;
general
be,1;
any,1;
it’s,1;
a,1;
T.,1;
a,1;
attempt,1;
reports,1;
list,1;
still,1;
invariance,,1;
generic,1;
possible.,1;
requires
introducing,1;
additional,1;
chapter,1;
a,1;
shared,1;
foundation
that,1;
we,1;
have,1;
a,1;
have,1;
mys-
terious.,1;
have,1;
known,1;
bits,1;
we,1;
chapter,1;
given,1;
a,1;
image,1;
we,1;
do,1;
for
types.,1;
how,1;
how,1;
code,,1;
take,1;
a,1;
look,1;
at,1;
YPES
Now,1;
fundamentals,1;
out,1;
we’ll,1;
look,1;
at,1;
We’ll
skip,1;
how,1;
out,1;
outs,1;
existen-
tial,1;
using,1;
Memory
Every,1;
a,1;
Rust,,1;
we’ll,1;
fundamental,1;
how,1;
bits,1;
For,1;
bits,1;
notation,1;
does,1;
not,1;
assign,1;
a,1;
interpreted,1;
u8,,1;
sequenceof,1;
bits,1;
interpreted,1;
define,1;
it’s,1;
defined,1;
type.
Where,1;
does,1;
bits?,1;
how,1;
begin,1;
code,,1;
code.
Alignment
Before,1;
we,1;
how,1;
a,1;
a,1;
a,1;
take,1;
any,1;
location,1;
and
interpret,1;
stored,1;
While,1;
a,1;
theoreti-
cal,1;
a,1;
given,1;
point,1;
a,1;
at,1;
would,1;
have,1;
create,1;
pointing,1;
For,1;
must,1;
at,1;
a,1;
at,1;
must,1;
at,1;
8,1;
have,1;
CPU,1;
often,1;
a,1;
For,1;
a,1;
CPU,,1;
8,1;
word,1;
uses,1;
chunks.
Where,1;
ensure,1;
if,1;
have,1;
do,1;
rest,1;
not,1;
multiple
accesses,1;
you’re,1;
written,1;
a,1;
before,1;
a,1;
value.
Operations,1;
not,1;
misaligned
accesses,1;
For,1;
CPU,1;
require,,1;
arguments,1;
A,1;
matches,1;
would,1;
take,1;
where
20
Chapter,1;
does,1;
computed
based,1;
Built-in,1;
usually,1;
a,1;
byte-aligned,,1;
a,1;
a,1;
a,1;
8-byte-aligned.,1;
any,1;
For,1;
a,1;
a,1;
u8,,1;
a,1;
u16,,1;
a,1;
u32.
Layout
Now,1;
we,1;
how,1;
known,1;
a,1;
type.
By,1;
you’ll,1;
how,1;
out,1;
makes,1;
a,1;
point,1;
Luckily,,1;
provides,1;
a,1;
repr,1;
attribute
you,1;
a,1;
common,1;
if,1;
one
at,1;
out,1;
a,1;
how,1;
a,1;
C,1;
would,1;
out,1;
same,1;
helpful,1;
interfaces,1;
we’ll,1;
a,1;
layout,1;
matches,1;
C,1;
layout,1;
not,1;
change,,1;
contexts,1;
if,1;
you’re,1;
if,1;
same,1;
course,,1;
perfect,1;
taking,1;
steps,1;
algorithms.
NOTE
Another,1;
a,1;
layout,1;
combination,1;
representations,1;
A,1;
if,1;
does,1;
not,1;
have,1;
same,1;
look,1;
how,1;
would,1;
out,1;
a,1;
Listing,1;
do,1;
would,1;
out,1;
{
tiny:,1;
u32,
small:,1;
u16,
}
Listing,1;
logical,1;
But,1;
CPU,1;
is
given,1;
a,1;
type,
so,1;
we,1;
But,1;
if,1;
going,1;
3,1;
value
that,1;
user,1;
between
tiny,1;
padding,,1;
does,1;
take,1;
space.
For,1;
it’s,1;
a,1;
+,1;
3,1;
+,1;
byte-
aligned,,1;
immediately,1;
we,1;
have,1;
+,1;
3,1;
+,1;
+,1;
9,1;
not,1;
we,1;
be,,1;
we,1;
we,1;
short,
bringing,1;
through,1;
any,1;
Foo’s,1;
8,1;
ensure,1;
if,1;
in,,1;
a,1;
final,1;
Foo’s,1;
a,1;
at,1;
we,1;
C,1;
would,1;
hap-
pen,1;
layout,1;
if,1;
we,1;
not,1;
repr(C),1;
Listing,1;
One,1;
C,1;
we,1;
same,1;
The
default,1;
limitation,,1;
along,1;
restrictions,,1;
for
types,1;
have,1;
same,1;
types
that,1;
same,1;
same,1;
same,1;
out,1;
same,1;
using,1;
layout!
Since,1;
we,1;
we,1;
Foo’s,1;
themselves,1;
of
the,1;
does,1;
not,1;
give,1;
how,1;
out,1;
we,1;
out,1;
a,1;
out,1;
a,1;
we,1;
do,1;
not,1;
any,1;
saying,1;
we,1;
willing,1;
take,1;
accesses.,1;
common,1;
additional,1;
if,1;
have,1;
a,1;
lot,1;
if,1;
have,1;
if,1;
you’re,1;
sending
the,1;
a,1;
a,1;
network
connection.,1;
opt,1;
mind,1;
code,,1;
cases,,1;
if,1;
CPU,1;
2Sometimes,,1;
give,1;
a,1;
a,1;
technically,1;
do,1;
using,1;
attribute
#[repr(align(n))].,1;
A,1;
common,1;
ensure,1;
stored,1;
array),1;
CPU.,1;
a,1;
line;,1;
parallel,,1;
contending,1;
same,1;
cache.,1;
curious,1;
how,1;
a,1;
reference:
Tuple  Represented,1;
a,1;
same,1;
same,1;
order.
Array  Represented,1;
a,1;
additional,1;
stores,1;
variant,1;
uses,1;
a,1;
given
value,1;
holds.,1;
depends,1;
number
of,1;
Sized,1;
Wide,1;
have,1;
Sized,1;
various,1;
wants,1;
a,1;
not.,1;
Sized,1;
have,1;
a,1;
known,1;
at,1;
do,1;
slices.,1;
have,,1;
a,1;
Iterator
or,1;
a,1;
do,1;
not,1;
have,1;
a,1;
depends,1;
some
information,1;
known,1;
not,1;
at,1;
Nobody
knows,1;
a,1;
often,1;
must,1;
how,1;
space,1;
a,1;
(i32,,1;
if,1;
if,1;
Sized,1;
nearly,1;
Struct,1;
must,1;
Sized.,1;
common,1;
bound,1;
Sized,1;
opt,1;
out,1;
“may,1;
not,1;
But,1;
if,1;
have,1;
a,1;
do,1;
if,1;
object,1;
a,1;
a,1;
known,1;
a,1;
A,1;
a,1;
additional,1;
a,1;
a,1;
DST,,1;
a,1;
you.,1;
For,1;
a,1;
slice,,1;
For,1;
a,1;
we’ll,1;
Sized.,1;
a,1;
a,1;
target,1;
“complete”,1;
Arc,1;
storing,1;
a,1;
though,1;
at,1;
does,1;
a,1;
how,1;
define,1;
won’t,1;
Instead,
we’re,1;
going,1;
take,1;
a,1;
look,1;
at,1;
implemented,,1;
restrictions,1;
have,1;
some
more,1;
uses,1;
written,1;
a,1;
generic,1;
generic,1;
methods,,1;
a,1;
But,1;
have,1;
wondered,1;
generic,1;
call,1;
a,1;
a,1;
a,1;
generic,1;
you’re,1;
a,1;
copy,1;
a,1;
a,1;
copy-pastes,1;
generic,1;
generic,1;
concrete,1;
makes,1;
a,1;
full,1;
copy,1;
replaced,1;
a,1;
full,1;
copy,1;
replaced,1;
String,1;
reality,,1;
does,1;
not,1;
do,1;
a,1;
full,1;
of
the,1;
if,1;
call,1;
a,1;
Vec<i32>,,1;
copied,1;
compiled.The,1;
same,1;
generic,1;
a,1;
generic,1;
String,1;
->,1;
A,1;
generic,1;
using,1;
copy,1;
made,1;
distinct,1;
(recall
that,1;
a,1;
copy,1;
of
the,1;
body,1;
we,1;
the
address,1;
call,1;
CPU,1;
For,1;
any,1;
given,1;
pattern,,1;
But,1;
we,1;
any,1;
we,1;
have,1;
copy,1;
any
given,1;
copy,1;
we,1;
have,1;
word,1;
a,1;
little,1;
overloaded,1;
known,1;
at,1;
though,1;
written,1;
we,1;
going,1;
a,1;
generic,1;
types
is,1;
it’s,1;
generic,1;
code,,1;
it’s,1;
if,1;
at,1;
if,1;
any,1;
full,1;
if,1;
at,1;
a,1;
increase,1;
if,1;
cannot,1;
optimize,1;
code,,1;
instructions,1;
shared,1;
a,1;
generic,1;
methods,,1;
multiple,1;
F,1;
UNC,1;
a,1;
generic,1;
not,1;
type-dependent.,1;
depends,1;
to
walk,1;
point,1;
not.,1;
would,1;
the
non-generic,1;
monomorphizations,,1;
needed.
One,1;
a,1;
generic,1;
shared,1;
type-dependent,1;
helper,1;
do,1;
not,1;
pollute,1;
a,1;
single-purpose,1;
a,1;
helper,1;
instead;,1;
a,1;
a,1;
generic,1;
still,1;
alternative,1;
call,1;
a,1;
a,1;
generic,1;
we,1;
multiple,1;
Listing,1;
2-2,1;
call,1;
the
given,1;
pattern.,1;
you.,1;
&dyn,1;
must,1;
a,1;
a,1;
vtable,,1;
that
holds,1;
question,,1;
wants,1;
call,1;
a,1;
pattern,,1;
at,1;
body,1;
wants,1;
vtable,1;
concrete,1;
layout,1;
always,1;
a,1;
of
what,1;
explicit,1;
vtable,1;
like,,1;
take,1;
a,1;
look,1;
at,1;
notice,1;
we,1;
using,1;
we,1;
we,1;
at,1;
in,,1;
how,1;
space,1;
aside,1;
!Sized,,1;
not.,1;
Sized,1;
we,1;
take,1;
an
26
Chapter,1;
we,1;
a,1;
we,1;
along,1;
becomes
a,1;
word,1;
any,1;
a,1;
Arc.,1;
Listing,1;
equivalent,1;
String,1;
&dyn,1;
->,1;
2-3:,1;
A,1;
generic,1;
using,1;
combination,1;
a,1;
a,1;
vtable,1;
a,1;
For,1;
Clone,1;
trait,,1;
a,1;
we,1;
accept,1;
a,1;
Clone,1;
object,1;
won’t,1;
consider
the,1;
a,1;
generic,1;
(so,1;
call,1;
a,1;
a,1;
Extend,,1;
vtable;
there,1;
would,1;
have,1;
not,1;
object-safe,1;
a,1;
generic,1;
cannot,1;
have,1;
does,1;
not,1;
would,1;
not,1;
execute.
When,1;
mentions,1;
Sized.,1;
a,1;
bound,1;
not,1;
through
a,1;
object,1;
(since,1;
would,1;
!Sized).,1;
bound,1;
a
trait,1;
place
it,1;
a,1;
specific,1;
through,1;
a,1;
a,1;
Sized,1;
bound,1;
if,1;
a,1;
it’s,1;
multiple,1;
methods,,1;
CPU,1;
cache.,1;
specific,1;
do,1;
Listing,1;
2-2,1;
a,1;
call,1;
to
the,1;
through,1;
vtable—it,1;
any,1;
does,1;
not,1;
call,1;
a,1;
object,1;
vtable,,1;
a,1;
calling
the,1;
you’re,1;
given,1;
a,1;
though,,1;
a,1;
best,1;
you
use,1;
do,1;
if,1;
use
static,1;
not.,1;
you’re,1;
final,1;
code,,1;
Dynamic,1;
often,1;
out,1;
generic,1;
at,1;
a,1;
it’s,1;
usually,1;
generic,1;
generic,1;
not,1;
immediately,1;
is
quite,1;
if,1;
of
the,1;
a,1;
given,1;
a,1;
generic,1;
often,1;
not,1;
multiple,1;
more
simply,1;
a,1;
generic,1;
trait,,1;
must,1;
always,1;
generic,1;
any,1;
messy
and,1;
a,1;
generic,1;
a,1;
trait,,1;
must,1;
reflect,1;
a,1;
a,1;
given,1;
deciding,1;
leading
to,1;
multiple,1;
same,1;
type—for,1;
PartialEq,1;
of
the,1;
generic,1;
trait,,1;
live
in,1;
do,1;
not,1;
trait,,1;
cannot,1;
multiple,1;
multiple,1;
types.
Coherence,1;
on.,1;
any,1;
given,1;
would,1;
if,1;
any,1;
a,1;
won’t,1;
Neither,1;
other,,1;
cannot,1;
same,1;
if,1;
not,1;
at
all,,1;
we,1;
have,1;
depend,1;
other,,1;
a,1;
shared,1;
always,1;
choice.
A,1;
would,1;
ensure,1;
crate
that,1;
a,1;
implementations,1;
if,1;
trait,,1;
elsewhere.,1;
would,1;
unless
you,1;
defining,1;
crate.,1;
saying,1;
problem,1;
introduces,1;
a,1;
a,1;
cannot,1;
implementations,1;
Ideally,,1;
we,1;
would,1;
some
set,1;
desire,1;
desire,1;
implementations,1;
code.
NOTE
Upstream,1;
depends,1;
depends,1;
direct,1;
do,1;
a,1;
Rust,,1;
says,1;
a,1;
a,1;
crate.,1;
for
your,1;
not,1;
implementations.
This,1;
far;,1;
not,1;
a,1;
number
of,1;
additional,1;
be
aware,1;
a,1;
on.,1;
a,1;
implementation—it
is,1;
not,1;
a,1;
Only,1;
a,1;
a,1;
a,1;
a,1;
not,,1;
a,1;
could,1;
suddenly,1;
a,1;
it’s,1;
if,1;
Box.,1;
For,1;
fundamental,1;
not,1;
before,1;
would,1;
not,1;
a,1;
a,1;
a,1;
a,1;
fundamental,1;
a,1;
we,1;
a,1;
a,1;
does,1;
not,1;
type,
yet,1;
a,1;
could,1;
through,1;
a,1;
in
the,1;
cannot,1;
a,1;
anyway.
To,1;
a,1;
specific,1;
circumstances.,1;
a,1;
given
impl<P1..=Pn>,1;
if,1;
at,1;
a,1;
before,1;
generic,1;
Generic,1;
A,1;
if,1;
appears,1;
as
a,1;
not,1;
if,1;
(just,1;
appears,1;
a,1;
fundamental,1;
the
implementations,1;
Listing,1;
MyType
impl<T>,1;
Vec<T>
Listing,1;
implementations,1;
types
30
Chapter,1;
implementations,1;
Listing,1;
2-5,1;
ForeignTrait,1;
T
impl<T>,1;
T
impl<T>,1;
From<Vec<T>>,1;
T
impl<T>,1;
T
impl<T>,1;
Vec<T>
Listing,1;
Invalid,1;
implementations,1;
a,1;
a,1;
a,1;
non-breaking,1;
if,1;
at,1;
a,1;
valid,,1;
could,1;
could,1;
a,1;
would,1;
before,1;
breaks,1;
combined.
Trait,1;
it’s,1;
must,1;
Hash,1;
+,1;
given,1;
thread::spawn
must,1;
+,1;
+,1;
generic,1;
almost,1;
cannot,1;
do
much,1;
generic,1;
you’ll,1;
look,1;
at,1;
foremost,,1;
do,1;
not,1;
have,1;
generic,1;
The
bounds,1;
restrictions,1;
do,1;
not,1;
include
generic,1;
a,1;
though,1;
Clone,1;
always,1;
and
contains,1;
generic,1;
do,1;
not,1;
not,1;
needlessly,1;
bounds.,1;
For,1;
if,1;
method
wants,1;
a,1;
S>,1;
generic,1;
a,1;
out,1;
S:,1;
+,1;
could,1;
using,1;
requirement,1;
significantly
reduce,1;
if,1;
call,1;
AIT
While,1;
bounds,
you,1;
aware,1;
subtlety,1;
how,1;
often,1;
often,1;
not,1;
always.,1;
For,1;
if,1;
we,1;
Clone,1;
Arc,1;
Clone,1;
Clone,1;
if,1;
big,1;
does,1;
a,1;
bound,1;
we,1;
problem,1;
a,1;
little,1;
clearer.
Imagine,1;
how,1;
a,1;
user,1;
a,1;
cannot,1;
writing,,1;
though,1;
may
change,1;
produces,1;
and
produces,1;
generic,1;
if,1;
themselves,1;
IntoIterator.,1;
bounds
like,1;
a,1;
using,1;
syntax
Type::AssocType.,1;
For,1;
we,1;
I’s,1;
using,1;
multiple,1;
same,1;
if,1;
provides,1;
generic,1;
(and,1;
not,1;
uses,1;
a,1;
bound,1;
talks,1;
references,1;
a,1;
have,1;
a,1;
generic,1;
cases,,1;
any,1;
known,1;
a,1;
it’s,1;
Fn,1;
For,1;
generic,1;
a,1;
a,1;
a,1;
->,1;
a,1;
“any,1;
a,1;
for<'a>
Fn(&'a,1;
->,1;
any,1;
bound,1;
must,1;
The
Rust,1;
Fn,1;
references,1;
covers,1;
majority,1;
feature.,1;
explicit,1;
writing,,1;
uses,1;
does,1;
bring,1;
Listing,1;
any,1;
->,1;
{
f.debug_list().entries(self).finish()
}}
Listing,1;
2-6:,1;
generic,1;
any,1;
could,1;
any,1;
would,1;
work.”,1;
course,,1;
a,1;
debug
implementation,,1;
we,1;
multiple,1;
a,1;
Hash,1;
a,1;
Clone,1;
cloned
by,1;
a,1;
But,1;
not,1;
Some,1;
a,1;
a,1;
cannot,1;
a,1;
For,1;
if,1;
a,1;
trait,,1;
does,1;
not,1;
trait,,1;
it’s,1;
a,1;
a,1;
std::marker,1;
(all,1;
does,1;
not,1;
capture,1;
not,1;
call,1;
a,1;
assumes,1;
given,1;
a,1;
sepa-
rate,1;
would,1;
have,1;
assumption.,1;
would,1;
assumption,1;
carefully,,1;
we,1;
on.,1;
have,1;
for,,1;
a,1;
a,1;
a,1;
user,1;
misuse
an,1;
For,1;
a,1;
have,1;
yet.,1;
could,1;
a,1;
generic,1;
create,1;
user,1;
SshConnection<Unauthe
nticated>.,1;
a,1;
The
­connect,1;
a,1;
it’s,1;
look,1;
at,1;
have,1;
in
the,1;
body,1;
a,1;
generic,1;
arguments,1;
appears,1;
usually,1;
infer,1;
argu-
ments,1;
(and,1;
types),1;
explicitly
name,1;
a,1;
have,1;
at,1;
known
points,1;
it’s,1;
not,1;
always,1;
fully,1;
a,1;
For,1;
if,1;
a,1;
closure,1;
a,1;
async,1;
a,1;
does,1;
not,1;
have,1;
a,1;
have,1;
All,1;
marked
as,1;
async,1;
a,1;
have,1;
does,1;
not,1;
give,1;
on.,1;
the
return,1;
else.
NOTE
Technically,,1;
nothing
else.,1;
through,1;
look,1;
at,1;
name:,1;
we,1;
assert-
ing,1;
exists,1;
concrete,1;
matches,1;
figure,1;
out,1;
body,1;
a,1;
it’s,1;
generic,1;
For,1;
impl
ToString),1;
foo<S:,1;
have,1;
For,1;
imagine,1;
you’re,1;
of
the,1;
do,1;
not,1;
define,1;
a,1;
IntoIter.
Instead,,1;
give,1;
using,1;
maps,1;
a,1;
they
allow,1;
a,1;
somewhere—iterators
and,1;
common,1;
to
hide,1;
concrete,1;
Users,1;
implements,,1;
concrete,1;
does,1;
it
also,1;
chapter,1;
a,1;
at,1;
how,1;
how,1;
for
writing,1;
code,,1;
interfaces,,1;
reasoning,1;
plays,1;
how,1;
interfaces,,1;
we’ll,1;
in
the,1;
how,1;
small,
has,1;
usually,1;
a,1;
a,1;
have,1;
a,1;
number
of,1;
interfaces:,1;
trait,,1;
rest,1;
codebase,1;
you’ll,1;
how,1;
using,1;
maintaining,1;
possible.
In,1;
chapter,1;
we’ll,1;
look,1;
at,1;
interfaces,1;
Rust,,1;
using,1;
boil,1;
four,1;
principles:,1;
interfaces,1;
obvious,,1;
constrained.,1;
reliable,1;
taking,1;
a,1;
look,1;
at,1;
follow,,1;
a,1;
Many,1;
chapter,1;
clippy,1;
if,1;
encourage,1;
through,1;
SemVer,1;
not,1;
a,1;
change
in,1;
known,1;
Law,1;
Least
Astonishment,,1;
a,1;
lot,1;
software,1;
interfaces,1;
interfaces,1;
if,1;
user,1;
usually,1;
going,1;
immediately,1;
intuitive
in,1;
things,1;
user,1;
likely,1;
have,1;
a,1;
out,1;
things,1;
specific,1;
a,1;
interfaces,1;
we’ll,1;
look,1;
at,1;
how,1;
common,1;
user,1;
out.
Naming,1;
user,1;
through,1;
names;,1;
will
immediately,1;
infer,1;
things,1;
methods,,1;
vari-
ables,,1;
reuses,1;
user,1;
A,1;
A,1;
likely,1;
A,1;
appears,1;
various,1;
common,1;
same,1;
things,1;
do,1;
things,1;
things,1;
a,1;
same,1;
if,1;
if
your,1;
SomethingError,1;
does,1;
not,1;
user,1;